9
Energy =
C    -0.2940723    0.5649594   -0.0002334 
O     0.3182700    1.6295498    0.0000916 
N     0.3350503   -0.6178499   -0.0000122 
C    -1.8014001    0.4785638   -0.0000008 
H    -0.1762028   -1.4829810    0.0000069 
H     1.3418358   -0.6367522    0.0002067 
H    -2.2214345    1.4797551    0.0001867 
H    -2.1386950   -0.0543343   -0.8845727 
H    -2.1385146   -0.0545876    0.8845084 
