8
Energy =
C    -0.2403940    0.5056540    0.0000100 
O     0.3143823    1.6404056   -0.0000088 
N     0.4119413   -0.6181492   -0.0000055 
C    -1.7924513    0.4840888    0.0000064 
H    -0.2361606   -1.4088671    0.0000038 
H    -2.1694290    1.5042524    0.0000048 
H    -2.1480824   -0.0382978   -0.8868592 
H    -2.1480824   -0.0382951    0.8868732 
