  9
G(CENSO)=        -209.14877587  G(xTB)=         100.04388461        !CONF1
C   -0.2796843550   0.5482809306   0.0002946696
O    0.3386391132   1.6411602233   0.0000269603
N    0.3536280667  -0.6227864623   0.0009415300
C   -1.7870598575   0.5032975067   0.0001553436
H   -0.1632988667  -1.4921716214  -0.0018505833
H    1.3661003442  -0.6514422272   0.0001039937
H   -2.1885138579   1.5168671213  -0.0007521733
H   -2.1498666243  -0.0319654433  -0.8829954032
H   -2.1500975474  -0.0305989726   0.8840756193
