9
Energy =
C    -0.2775205    0.5687607    0.0000003 
O     0.3436424    1.6280464   -0.0000041 
N     0.3419224   -0.6195535   -0.0000000 
C    -1.7853152    0.4964341    0.0000054 
H    -0.1795591   -1.4787391    0.0000033 
H     1.3481297   -0.6501158   -0.0000038 
H    -2.1944016    1.5020685    0.0000050 
H    -2.1285252   -0.0331142   -0.8844620 
H    -2.1285192   -0.0331112    0.8844768 
