  10
G(CENSO)=        -209.56158607  G(xTB)=         100.05602663        !CONF1
C   -0.3223136903   0.4975717559  -0.0000916109
O    0.3603146441   1.6144025829  -0.0002615115
N    0.3529451639  -0.6117025177   0.0002895940
C   -1.8062217651   0.4995696586   0.0002604810
H   -0.1363107733  -1.5006692055  -0.0017338137
H    1.3694253633  -0.6111976254   0.0015022932
H   -2.1932135401   1.5181407472   0.0004881089
H   -2.1673725737  -0.0343758530  -0.8842339524
H   -2.1673839942  -0.0345694124   0.8846415632
H   -0.2219574047   2.3975996493  -0.0008610245
