10
Energy =
C    -0.3264926    0.5051537   -0.0003270 
O     0.3603465    1.6016375   -0.0000575 
N     0.3391111   -0.6091074   -0.0001114 
C    -1.8026040    0.4924012   -0.0000151 
H    -0.1321252   -1.5033307    0.0000692 
H     1.3525030   -0.5890610    0.0002665 
H    -2.2248649    1.4919369    0.0001208 
H    -2.1703760   -0.0415318   -0.8745706 
H    -2.1701640   -0.0416446    0.8745750 
H    -0.1574029    2.4283522    0.0000678 
